data_gen_13
_audit_creation_date              2025-03-16
_audit_creation_method            'Materials Studio'
_symmetry_space_group_name_H-M    'P 1'
_symmetry_Int_Tables_number       1
_symmetry_cell_setting            monoclinic
loop_
_symmetry_equiv_pos_as_xyz
  x,y,z
  y,x,z
_cell_length_a                    9.4954
_cell_length_b                    9.4954
_cell_length_c                    4.9253
_cell_angle_alpha                 89.2671
_cell_angle_beta                  89.2671
_cell_angle_gamma                 16.6378
loop_
_atom_site_label
_atom_site_type_symbol
_atom_site_fract_x
_atom_site_fract_y
_atom_site_fract_z
_atom_site_U_iso_or_equiv
_atom_site_adp_type
_atom_site_occupancy
Li1    Li    0.39578   0.39578   0.93868   0.00000  Uiso   1.00
Fe2    Fe    0.28928   0.28928   0.31662   0.00000  Uiso   1.00
Li2    Li    0.02970   0.02970   0.08685   0.00000  Uiso   1.00
O3     O     0.20709   0.20709   0.08928   0.00000  Uiso   1.00
O4     O     0.47970   0.47970   0.28799   0.00000  Uiso   1.00
Mn1    Mn    0.15661   0.15661   0.70771   0.00000  Uiso   1.00
O7     O     0.35912   0.35912   0.58260   0.00000  Uiso   1.00
O1     O    -0.28303   0.71697   0.54996   0.00000  Uiso   1.00
Fe1    Fe   -0.08260   0.91740   0.44740   0.00000  Uiso   1.00
Fe3    Fe   -0.45467   0.54533   0.59089   0.00000  Uiso   1.00
Fe4    Fe   -0.34766   0.65234   0.26714   0.00000  Uiso   1.00
O5     O    -0.39609   0.60391   0.90412   0.00000  Uiso   1.00
O6     O    -0.15598   0.84402   0.16634   0.00000  Uiso   1.00
O2     O     0.98326  -0.01674   0.73568   0.00000  Uiso   1.00
